
**
** ABAQUS Input Deck Generated by HyperMesh Version  : 13.0.0.119
** Generated using HyperMesh-Abaqus Template Version : 13.0
**
**   Template:  ABAQUS/STANDARD 3D
**
*HEADING
BelugaXL_Peen_Forming_Test
*NODE
      4000,  3167.2226787228,  -782.3642986434,  299.69401448807
      4001,  3167.3053231877,  -812.9476605438,  295.7762955751 
      4002,  3167.4018138656,  -843.4382095547,  291.21798432924
      4003,  3167.5135345218,  -873.8069137442,  285.96716699488
      4004,  3167.6417065945,  -904.0486101828,  279.96039802777
      4005,  3167.7877221766,  -934.101660711 ,  273.13678062617
      4006,  3167.953345007 ,  -963.9500591631,  265.41633598218
      4007,  3168.140246979 ,  -993.5249773252,  256.72055284681
      4008,  3168.3504564865,  -1022.762756442,  246.95835114142
      4009,  3168.586036894 ,  -1051.58024422 ,  236.0369253188 
      4010,  3168.8439491856,  -1079.994003988,  224.0928394609 
      4011,  3169.121212399 ,  -1108.023746451,  211.26364412365
      4012,  3169.8052076419,  45.903891111693,  184.95155631473
      4013,  3169.5969143258,  20.318882006049,  194.38566095459
      4014,  3169.3952102254,  -5.613922543899,  203.51659529692
      4015,  3169.2026990192,  -31.57371770155,  212.22602338988
      4016,  3169.0185292532,  -57.65655815132,  220.55273324884
      4017,  3168.842668655 ,  -83.85801960046,  228.49803927395
      4018,  3167.0719803011,  -634.582546264 ,  307.24533788191
      4019,  3167.0697793327,  -664.1879853521,  307.21701803843
** ... 4731 like lines cut
*ELEMENT,TYPE=S4R,ELSET=Surface_35
         1,     12251,     12256,     12253,     12247
         2,     12245,     12257,     12174,     12173
         3,      8753,      8756,      8723,      8722
         4,      4007,      4006,     12251,     12246
         5,     12248,     12254,     12250,     12244
         6,      8754,      8760,      8756,      8753
         7,      8758,      8740,      8719,      8720
         8,      8724,      8723,      8756,      8759
         9,      8762,      8754,      8755,      8757
        10,     12257,     12245,     12242,     12249
        11,      8758,      8720,      8099,      8098
        12,      8740,      8758,      8767,      8741
        13,     12247,     12253,     12248,     12241
        14,      8760,      8754,      8762,      8768
        15,      8760,      8765,      8759,      8756
        16,      8725,      8724,      8759,      8766
        17,      8762,      8757,      8761,      8764
        18,     12250,     12252,     12238,     12244
        19,     12238,     12252,     12249,     12242
        20,      8763,      8772,      8764,      8761
** ... 2552 like lines cut
*ELEMENT,TYPE=S4R,ELSET=Surface_50
      2573,      9006,      9007,      9086,      9005
      2574,      9007,      9008,      9087,      9086
      2575,      9005,      9086,      9088,      9004
      2576,      9008,      9009,      9089,      9087
      2577,      9086,      9087,      9090,      9088
      2578,      9004,      9088,      9091,      9069
      2579,      9009,      9010,      9092,      9089
      2580,      9087,      9089,      9093,      9090
      2581,      9088,      9090,      9094,      9091
      2582,      9069,      9091,      9095,      9070
      2583,      9010,      8914,      8915,      9092
      2584,      9089,      9092,      9098,      9093
      2585,      9060,      9059,      9085,      9097
      2586,      9090,      9093,      9096,      9094
      2587,      9091,      9094,      9099,      9095
      2588,      9097,      9085,      9084,      9101
      2589,      9070,      9095,      9100,      9071
      2590,      9093,      9098,      9103,      9096
      2591,      9094,      9096,      9102,      9099
      2592,      9092,      8915,      8916,      9098
** ... 1973 like lines cut
*SHELL SECTION, ELSET=Surface_35, OFFSET= SNEG, COMPOSITE
0.1      ,         3,ALUMINIO,0.
0.1      ,         3,ALUMINIO,0.
0.1      ,         3,ALUMINIO,0.
0.1      ,         3,ALUMINIO,0.
0.1      ,         3,ALUMINIO,0.
0.1      ,         3,ALUMINIO,0.
0.1      ,         3,ALUMINIO,0.
0.1      ,         3,ALUMINIO,0.
0.1      ,         3,ALUMINIO,0.
0.1      ,         3,ALUMINIO,0.
0.1      ,         3,ALUMINIO,0.
0.1      ,         3,ALUMINIO,0.
0.1      ,         3,ALUMINIO,0.
0.1      ,         3,ALUMINIO,0.
0.1      ,         3,ALUMINIO,0.
0.1      ,         3,ALUMINIO,0.
0.1      ,         3,ALUMINIO,0.
0.1      ,         3,ALUMINIO,0.
0.1      ,         3,ALUMINIO,0.
0.1      ,         3,ALUMINIO,0.
** ... 5 like lines cut
*SHELL SECTION, ELSET=Surface_50, OFFSET= SNEG, COMPOSITE
0.1       ,         3,ALUMINIO,0.
0.1       ,         3,ALUMINIO,0.
0.1       ,         3,ALUMINIO,0.
0.1       ,         3,ALUMINIO,0.
0.1       ,         3,ALUMINIO,0.
0.1       ,         3,ALUMINIO,0.
0.1       ,         3,ALUMINIO,0.
0.1       ,         3,ALUMINIO,0.
0.1       ,         3,ALUMINIO,0.
0.1       ,         3,ALUMINIO,0.
0.1       ,         3,ALUMINIO,0.
0.1       ,         3,ALUMINIO,0.
0.1       ,         3,ALUMINIO,0.
0.1       ,         3,ALUMINIO,0.
0.1       ,         3,ALUMINIO,0.
0.1       ,         3,ALUMINIO,0.
0.1       ,         3,ALUMINIO,0.
0.1       ,         3,ALUMINIO,0.
0.1       ,         3,ALUMINIO,0.
0.1       ,         3,ALUMINIO,0.
** ... 5 like lines cut
*ELSET, ELSET=ALLELEMENTS
         1,         2,         3,         4,         5,         6,         7,         8,
         9,        10,        11,        12,        13,        14,        15,        16,
        17,        18,        19,        20,        21,        22,        23,        24,
        25,        26,        27,        28,        29,        30,        31,        32,
        33,        34,        35,        36,        37,        38,        39,        40,
        41,        42,        43,        44,        45,        46,        47,        48,
        49,        50,        51,        52,        53,        54,        55,        56,
        57,        58,        59,        60,        61,        62,        63,        64,
        65,        66,        67,        68,        69,        70,        71,        72,
        73,        74,        75,        76,        77,        78,        79,        80,
        81,        82,        83,        84,        85,        86,        87,        88,
        89,        90,        91,        92,        93,        94,        95,        96,
        97,        98,        99,       100,       101,       102,       103,       104,
       105,       106,       107,       108,       109,       110,       111,       112,
       113,       114,       115,       116,       117,       118,       119,       120,
       121,       122,       123,       124,       125,       126,       127,       128,
       129,       130,       131,       132,       133,       134,       135,       136,
       137,       138,       139,       140,       141,       142,       143,       144,
       145,       146,       147,       148,       149,       150,       151,       152,
       153,       154,       155,       156,       157,       158,       159,       160,
** ... 551 like lines cut
*ELSET, ELSET=CHAPON
       698,       694,       690,       687,       685,       684,       654,       648,
       642,       634,       631,       629,       627,       626,       537,       536,
       535,       534,       527,       524,       520,       518,       516,       514,
       513,       511,       510,       508,       507,       506,       505,       504,
       503,       502,       501,       500,       499,       498,       497,       496,
       495,       494,       493,       492,       132,       130,       128,       124,
       122,       121,       119,       117,       116,       113,       112,       111,
        41,        33,        30,        27,        26,        19,        18,        13,
        10,         5,         4,         2,         1,      1685,      1684,      1683,
      1682,      1681,      1680,      1679,      1678,      1677,      1676,      1675,
      1674,      1673,      1672,      1350,      1340,      1337,      1331,      1327,
      1322,      1317,      1313,      1311,      2552,      2551,      2550,      2549,
      2548,      2547,      2546,      2545,      2544,      2543,      2542,      2541,
      2540,      2539,      2538,      2537,      2536,      2535,      2534,      2533,
      2532,      2531,      2530,      2529,      2528,      2527,      2526,      2525,
      2524,      2523,      2522,      2521,      2520,      2519,      2518,      2517,
      2516,      2515,      2514,      2513,      2512,      2511,      2510,      2509,
      2508,      2507,      2506,      2505,      2504,      2503,      2502,      2501,
      2500,      2499,      2498,      2497,      2496,      2495,      2494,      2493,
      2492,      2491,      2490,      2489,      2488,      2487,      2486,      2485,
** ... 551 like lines cut
*ELSET, ELSET=NERVIOS
*ELSET, ELSET=NERVIOS_Y_CHAPON
       698,       694,       690,       687,       685,       684,       654,       648,
       642,       634,       631,       629,       627,       626,       537,       536,
       535,       534,       527,       524,       520,       518,       516,       514,
       513,       511,       510,       508,       507,       506,       505,       504,
       503,       502,       501,       500,       499,       498,       497,       496,
       495,       494,       493,       492,       132,       130,       128,       124,
       122,       121,       119,       117,       116,       113,       112,       111,
        41,        33,        30,        27,        26,        19,        18,        13,
        10,         5,         4,         2,         1,      1685,      1684,      1683,
      1682,      1681,      1680,      1679,      1678,      1677,      1676,      1675,
      1674,      1673,      1672,      1350,      1340,      1337,      1331,      1327,
      1322,      1317,      1313,      1311,      2552,      2551,      2550,      2549,
      2548,      2547,      2546,      2545,      2544,      2543,      2542,      2541,
      2540,      2539,      2538,      2537,      2536,      2535,      2534,      2533,
      2532,      2531,      2530,      2529,      2528,      2527,      2526,      2525,
      2524,      2523,      2522,      2521,      2520,      2519,      2518,      2517,
      2516,      2515,      2514,      2513,      2512,      2511,      2510,      2509,
      2508,      2507,      2506,      2505,      2504,      2503,      2502,      2501,
      2500,      2499,      2498,      2497,      2496,      2495,      2494,      2493,
      2492,      2491,      2490,      2489,      2488,      2487,      2486,      2485,
** ... 551 like lines cut
*ELSET, ELSET=Surface_35
         1,         2,         3,         4,         5,         6,         7,         8,
         9,        10,        11,        12,        13,        14,        15,        16,
        17,        18,        19,        20,        21,        22,        23,        24,
        25,        26,        27,        28,        29,        30,        31,        32,
        33,        34,        35,        36,        37,        38,        39,        40,
        41,        42,        43,        44,        45,        46,        47,        48,
        49,        50,        51,        52,        53,        54,        55,        56,
        57,        58,        59,        60,        61,        62,        63,        64,
        65,        66,        67,        68,        69,        70,        71,        72,
        73,        74,        75,        76,        77,        78,        79,        80,
        81,        82,        83,        84,        85,        86,        87,        88,
        89,        90,        91,        92,        93,        94,        95,        96,
        97,        98,        99,       100,       101,       102,       103,       104,
       105,       106,       107,       108,       109,       110,       111,       112,
       113,       114,       115,       116,       117,       118,       119,       120,
       121,       122,       123,       124,       125,       126,       127,       128,
       129,       130,       131,       132,       133,       134,       135,       136,
       137,       138,       139,       140,       141,       142,       143,       144,
       145,       146,       147,       148,       149,       150,       151,       152,
       153,       154,       155,       156,       157,       158,       159,       160,
** ... 302 like lines cut
*ELSET, ELSET=Surface_50
      2573,      2574,      2575,      2576,      2577,      2578,      2579,      2580,
      2581,      2582,      2583,      2584,      2585,      2586,      2587,      2588,
      2589,      2590,      2591,      2592,      2593,      2594,      2595,      2596,
      2597,      2598,      2599,      2600,      2601,      2602,      2603,      2604,
      2605,      2606,      2607,      2608,      2609,      2610,      2611,      2612,
      2613,      2614,      2615,      2616,      2617,      2618,      2619,      2620,
      2621,      2622,      2623,      2624,      2625,      2626,      2627,      2628,
      2629,      2630,      2631,      2632,      2633,      2634,      2635,      2636,
      2637,      2638,      2639,      2640,      2641,      2642,      2643,      2644,
      2645,      2646,      2647,      2648,      2649,      2650,      2651,      2652,
      2653,      2654,      2655,      2656,      2657,      2658,      2659,      2660,
      2661,      2662,      2663,      2664,      2665,      2666,      2667,      2668,
      2669,      2670,      2671,      2672,      2673,      2674,      2675,      2676,
      2677,      2678,      2679,      2680,      2681,      2682,      2683,      2684,
      2685,      2686,      2687,      2688,      2689,      2690,      2691,      2692,
      2693,      2694,      2695,      2696,      2697,      2698,      2699,      2700,
      2701,      2702,      2703,      2704,      2705,      2706,      2707,      2708,
      2709,      2710,      2711,      2712,      2713,      2714,      2715,      2716,
      2717,      2718,      2719,      2720,      2721,      2722,      2723,      2724,
      2725,      2726,      2727,      2728,      2729,      2730,      2731,      2732,
** ... 230 like lines cut
**
*NSET, NSET=ALLNODES
      4000,      4001,      4002,      4003,      4004,      4005,      4006,      4007,
      4008,      4009,      4010,      4011,      4012,      4013,      4014,      4015,
      4016,      4017,      4018,      4019,      4020,      4021,      4022,      4023,
      4024,      4025,      4026,      4027,      4028,      4029,      5000,      5001,
      5002,      5003,      5004,      5005,      5006,      5007,      5008,      5009,
      5010,      5011,      5012,      5013,      5014,      5015,      5016,      5017,
      5018,      5019,      5020,      5021,      5022,      5023,      5024,      5025,
      5026,      5027,      5028,      5029,      5030,      5031,      5032,      5033,
      5034,      5035,      5036,      5037,      5038,      5039,      5040,      6000,
      6001,      6002,      6003,      6004,      6005,      6006,      6007,      6008,
      6009,      6010,      6011,      6012,      6013,      6014,      6015,      6016,
      6017,      6018,      6019,      6020,      6021,      6022,      6023,      6024,
      6025,      6026,      6027,      6028,      6029,      6030,      6031,      6032,
      6033,      6034,      6035,      6036,      6037,      6038,      6039,      6040,
      6041,      6042,      7000,      7001,      7002,      7003,      7004,      7005,
      7006,      7007,      7008,      7009,      7010,      7011,      7012,      7013,
      7014,      7015,      7016,      7017,      7018,      7019,      7020,      7021,
      7022,      7023,      7024,      7025,      7026,      7027,      7028,      7029,
      7030,      7031,      7032,      7033,      7034,      7035,      7036,      7037,
      7038,      7039,      7040,      7041,      7042,      7043,      7044,      7045,
** ... 574 like lines cut
*NSET, NSET=N_PLACA
      4000,      4001,      4002,      4003,      4004,      4005,      4006,      4007,
      4008,      4009,      4010,      4011,      4012,      4013,      4014,      4015,
      4016,      4017,      4018,      4019,      4020,      4021,      4022,      4023,
      4024,      4025,      4026,      4027,      4028,      4029,      5000,      5001,
      5002,      5003,      5004,      5005,      5006,      5007,      5008,      5009,
      5010,      5011,      5012,      5013,      5014,      5015,      5016,      5017,
      5018,      5019,      5020,      5021,      5022,      5023,      5024,      5025,
      5026,      5027,      5028,      5029,      5030,      5031,      5032,      5033,
      5034,      5035,      5036,      5037,      5038,      5039,      5040,      6000,
      6001,      6002,      6003,      6004,      6005,      6006,      6007,      6008,
      6009,      6010,      6011,      6012,      6013,      6014,      6015,      6016,
      6017,      6018,      6019,      6020,      6021,      6022,      6023,      6024,
      6025,      6026,      6027,      6028,      6029,      6030,      6031,      6032,
      6033,      6034,      6035,      6036,      6037,      6038,      6039,      6040,
      6041,      6042,      7000,      7001,      7002,      7003,      7004,      7005,
      7006,      7007,      7008,      7009,      7010,      7011,      7012,      7013,
      7014,      7015,      7016,      7017,      7018,      7019,      7020,      7021,
      7022,      7023,      7024,      7025,      7026,      7027,      7028,      7029,
      7030,      7031,      7032,      7033,      7034,      7035,      7036,      7037,
      7038,      7039,      7040,      7041,      7042,      7043,      7044,      7045,
** ... 574 like lines cut
*MATERIAL, NAME=ALUMINIO
*ELASTIC, DEPENDENCIES =     1, TYPE = ISOTROPIC
67324.0   ,0.33      ,0.0       ,0.0       
67324.0   ,0.33      ,0.0       ,1.0       
*****
*STEP, INC =        10000, NAME = NEGATIVO, NLGEOM = YES
*Static, stabilize
0.01, 1., 1e-05, 1.
*CONTROLS,PARAMETERS=TIME INCREMENTATION
, , , , , , , 10,
*BOUNDARY
      4000,3,3,0
      4001,3,3,3.91771891297003
      4002,3,3,8.47603015883004
      4003,3,3,13.72684749319
      4004,3,3,19.7336164603
      4005,3,3,26.5572338619
      4006,3,3,34.27767850589
      4007,3,3,42.97346164126
      4008,3,3,52.73566334665
      4009,3,3,63.65708916927
      4010,3,3,75.60117502717
      4011,3,3,88.43037036442
      4012,3,3,114.74245817334
      4013,3,3,105.30835353348
      4014,3,3,96.17741919115
      4015,3,3,87.46799109819
      4016,3,3,79.14128123923
      4017,3,3,71.19597521412
      4018,3,3,-7.55132339383999
      4019,3,3,-7.52300355035999
** ... 4731 like lines cut
** OUTPUT REQUESTS
** 
*Restart, write, frequency=0
** 
** FIELD OUTPUT: F-Output-1
** 
*Output, field, variable=PRESELECT, NUMBER INTERVAL=4
*Element Output, directions=YES, ELSET=ALLELEMENTS
1, 2, 3, 73, 74, 75
E,S
*Output, history, variable=PRESELECT
*EL PRINT, elset=NERVIOS_Y_CHAPON, FREQUENCY=9999999, position=INTEGRATION POINTS, summary=NO, totals=NO
1, 75
S11,S22,S12,MISES,SP
*End Step
**
